---- qbsp / ericw-tools v0.18.1 ----
Input file: EpisodeOne.map
Output file: EpisodeOne.bsp

---- LoadMapFile ----
*** WARNING 06: No info_player_deathmatch entities in level
         2717 faces
          425 brushes
           11 entities
           16 unique texnames
           63 texinfo

Opened WAD: ../wads/prototype_1_2.wad
Opened WAD: ../wads/START.WAD
Processing hull 0...
---- Brush_LoadEntity ----
          299 brushes
          802 planes
---- CSGFaces ----
         1961 brushfaces
         1890 csgfaces
         1500 mergedfaces
---- SolidBSP ----
         1832 split nodes
          641 solid leafs
         1135 empty leafs
           57 water leafs
            0 detail leafs
            0 detail illusionary leafs
            0 detail fence leafs
            0 illusionary visblocker leafs
         3990 leaffaces
         3460 nodefaces
---- Portalize ----
         1192 vis leafs
         1192 vis clusters
         3664 vis portals
---- FillOutside ----
          667 outleafs
---- MergeAll ----
          840 mergefaces
---- SolidBSP ----
          639 split nodes
          312 solid leafs
          303 empty leafs
           25 water leafs
            0 detail leafs
            0 detail illusionary leafs
            0 detail fence leafs
            0 illusionary visblocker leafs
         1745 leaffaces
         1293 nodefaces
---- Portalize ----
          328 vis leafs
          328 vis clusters
          964 vis portals
---- Tjunc ----
         1389 world edges
         4252 edge points
         1068 edges added by tjunctions
            0 faces added by tjunctions
---- MakeFaceEdges ----
---- GrowRegions ----
Processing hull 1...
Processing hull 2...
*** WARNING 16: Texture __TB_empty not found
---- WriteBSPFile ----
Wrote EpisodeOne.bsp
          627 planes            12540
         1548 vertexes          18576
          639 nodes             15336
           42 texinfo            1680
         1293 faces             25860
          618 clipnodes          4944
          329 leafs              9212
         1745 marksurfaces       3490
         5968 surfedges         23872
         2985 edges             11940
           16 textures         283948
              lightdata             0
              visdata               0
              entdata             849

0.486 seconds elapsed
Peak memory usage: 15813514 (15.1M)
