---- qbsp / ericw-tools v0.18.1 ----
Input file: EpisodeOne.map
Output file: EpisodeOne.bsp

---- LoadMapFile ----
*** WARNING 06: No info_player_deathmatch entities in level
         4409 faces
          706 brushes
           53 entities
           28 unique texnames
           93 texinfo

Opened WAD: ../wads/prototype_1_2.wad
Opened WAD: ../wads/START.WAD
Processing hull 0...
---- Brush_LoadEntity ----
          549 brushes
          913 planes
---- CSGFaces ----
         3467 brushfaces
         2893 csgfaces
         2229 mergedfaces
---- SolidBSP ----
         3002 split nodes
         1087 solid leafs
         1811 empty leafs
          105 water leafs
            0 detail leafs
            0 detail illusionary leafs
            0 detail fence leafs
            0 illusionary visblocker leafs
         6130 leaffaces
         5460 nodefaces
---- Portalize ----
         1916 vis leafs
         1916 vis clusters
         5685 vis portals
---- FillOutside ----
         1208 outleafs
---- MergeAll ----
         1384 mergefaces
---- SolidBSP ----
          965 split nodes
          529 solid leafs
          385 empty leafs
           52 water leafs
            0 detail leafs
            0 detail illusionary leafs
            0 detail fence leafs
            0 illusionary visblocker leafs
         2621 leaffaces
         2074 nodefaces
---- Portalize ----
          437 vis leafs
          437 vis clusters
         1168 vis portals
---- Tjunc ----
         1917 world edges
         6787 edge points
         1694 edges added by tjunctions
            0 faces added by tjunctions
---- MakeFaceEdges ----
---- GrowRegions ----
Processing hull 1...
Processing hull 2...
*** WARNING 16: Texture __TB_empty not found
---- WriteBSPFile ----
Wrote EpisodeOne.bsp
          866 planes            17320
         2667 vertexes          32004
         1151 nodes             27624
           66 texinfo            2640
         2119 faces             42380
         1744 clipnodes         13952
          624 leafs             17472
         2666 marksurfaces       5332
         9884 surfedges         39536
         5009 edges             20036
           34 textures         431000
              lightdata             0
              visdata               0
              entdata            3830

0.646 seconds elapsed
Peak memory usage: 24342244 (23.2M)
