---- qbsp / ericw-tools v0.18.1 ----
Input file: EpisodeOne.map
Output file: EpisodeOne.bsp

---- LoadMapFile ----
*** WARNING 06: No info_player_deathmatch entities in level
        16056 faces
         2532 brushes
          592 entities
           37 unique texnames
          185 texinfo

Opened WAD: ../wads/prototype_1_2.wad
Opened WAD: ../wads/START.WAD
Processing hull 0...
---- Brush_LoadEntity ----
         2081 brushes
         2000 planes
---- CSGFaces ----
        12994 brushfaces
        11497 csgfaces
         8701 mergedfaces
---- SolidBSP ----
        10219 split nodes
         3698 solid leafs
         6034 empty leafs
          488 water leafs
            0 detail leafs
            0 detail illusionary leafs
            0 detail fence leafs
            0 illusionary visblocker leafs
        23331 leaffaces
        19597 nodefaces
---- Portalize ----
         6522 vis leafs
         6522 vis clusters
        21009 vis portals
---- FillOutside ----
         3263 outleafs
---- MergeAll ----
         6186 mergefaces
---- SolidBSP ----
         3851 split nodes
         1732 solid leafs
         1788 empty leafs
          332 water leafs
            0 detail leafs
            0 detail illusionary leafs
            0 detail fence leafs
            0 illusionary visblocker leafs
        12314 leaffaces
         8464 nodefaces
---- Portalize ----
         2120 vis leafs
         2120 vis clusters
         5768 vis portals
---- Tjunc ----
         7806 world edges
        27232 edge points
         7528 edges added by tjunctions
            0 faces added by tjunctions
---- MakeFaceEdges ----
---- GrowRegions ----
Processing hull 1...
Processing hull 2...
*** WARNING 16: Texture __TB_empty not found
---- WriteBSPFile ----
Wrote EpisodeOne.bsp
         4223 planes            84460
        15131 vertexes         181572
         6183 nodes            148392
          156 texinfo            6240
        11955 faces            239100
         9502 clipnodes         76016
         4183 leafs            117124
        15809 marksurfaces      31618
        55242 surfedges        220968
        28525 edges            114100
           45 textures         501400
              lightdata             0
              visdata               0
              entdata           60133

2.606 seconds elapsed
Peak memory usage: 91038094 (86.8M)
