---- qbsp / ericw-tools v0.18.1 ----
Input file: EpisodeOne.map
Output file: EpisodeOne.bsp

---- LoadMapFile ----
*** WARNING 06: No info_player_deathmatch entities in level
        19600 faces
         3105 brushes
          790 entities
          239 unique texnames
          900 texinfo

Opened WAD: ../wads/prototype_1_2.wad
Opened WAD: ../wads/START.WAD
Opened WAD: ../../quake-leveldesign-starterkit-master/wads/SiN.wad
Opened WAD: ../../quake-leveldesign-starterkit-master/wads/QUAKE101.WAD
Processing hull 0...
---- Brush_LoadEntity ----
         2635 brushes
         2145 planes
---- CSGFaces ----
        16426 brushfaces
        13411 csgfaces
        10698 mergedfaces
---- SolidBSP ----
        11184 split nodes
         3741 solid leafs
         6600 empty leafs
          844 water leafs
            0 detail leafs
            0 detail illusionary leafs
            0 detail fence leafs
            0 illusionary visblocker leafs
        27414 leaffaces
        23308 nodefaces
---- Portalize ----
         7444 vis leafs
         7444 vis clusters
        23433 vis portals
---- FillOutside ----
         3501 outleafs
---- MergeAll ----
         7773 mergefaces
---- SolidBSP ----
         4154 split nodes
         1691 solid leafs
         1989 empty leafs
          475 water leafs
            0 detail leafs
            0 detail illusionary leafs
            0 detail fence leafs
            0 illusionary visblocker leafs
        14484 leaffaces
        10472 nodefaces
---- Portalize ----
         2464 vis leafs
         2464 vis clusters
         6687 vis portals
---- Tjunc ----
         8562 world edges
        30644 edge points
         8704 edges added by tjunctions
            0 faces added by tjunctions
---- MakeFaceEdges ----
---- GrowRegions ----
Processing hull 1...
Processing hull 2...
*** WARNING 16: Texture __TB_empty not found
---- WriteBSPFile ----
Wrote EpisodeOne.bsp
         4448 planes            88960
        16382 vertexes         196584
         6485 nodes            155640
          615 texinfo           24600
        13918 faces            278360
        10234 clipnodes         81872
         4526 leafs            126728
        17935 marksurfaces      35870
        64258 surfedges        257032
        33069 edges            132276
          247 textures        2017620
              lightdata             0
              visdata               0
              entdata           75861

2.923 seconds elapsed
Peak memory usage: 103858650 (99.0M)
