---- qbsp / ericw-tools v0.18.1 ----
Input file: EpisodeOne.map
Output file: EpisodeOne.bsp

---- LoadMapFile ----
*** WARNING 06: No info_player_deathmatch entities in level
         2663 faces
          416 brushes
           11 entities
           16 unique texnames
           63 texinfo

Opened WAD: ../wads/prototype_1_2.wad
Opened WAD: ../wads/START.WAD
Processing hull 0...
---- Brush_LoadEntity ----
          290 brushes
          795 planes
---- CSGFaces ----
         1907 brushfaces
         1812 csgfaces
         1441 mergedfaces
---- SolidBSP ----
         1786 split nodes
          625 solid leafs
         1112 empty leafs
           50 water leafs
            0 detail leafs
            0 detail illusionary leafs
            0 detail fence leafs
            0 illusionary visblocker leafs
         3942 leaffaces
         3340 nodefaces
---- Portalize ----
         1162 vis leafs
         1162 vis clusters
         3581 vis portals
---- FillOutside ----
*** WARNING 10: Reached occupant at (88 1904 264), no filling performed.
Leak file written to EpisodeOne.pts
---- MakeFaceEdges ----
---- GrowRegions ----
Processing hull 1...
*** WARNING 10: Reached occupant at (392 3200 328), no filling performed.
Processing hull 2...
*** WARNING 10: Reached occupant at (392 3200 328), no filling performed.
*** WARNING 16: Texture __TB_empty not found
---- WriteBSPFile ----
Wrote EpisodeOne.bsp
         1134 planes            22680
         3657 vertexes          43884
         1786 nodes             42864
           52 texinfo            2080
         3340 faces             66800
         2859 clipnodes         22872
         1163 leafs             32564
         3942 marksurfaces       7884
        12838 surfedges         51352
         8359 edges             33436
           16 textures         283948
              lightdata             0
              visdata               0
              entdata             849

0.446 seconds elapsed
Peak memory usage: 20399024 (19.5M)
