---- qbsp / ericw-tools v0.18.1 ----
Input file: EpisodeOne.map
Output file: EpisodeOne.bsp

---- LoadMapFile ----
*** WARNING 05: No info_player_start entity in level
*** WARNING 06: No info_player_deathmatch entities in level
        19192 faces
         3040 brushes
          625 entities
          197 unique texnames
          733 texinfo

Opened WAD: ../wads/prototype_1_2.wad
Opened WAD: ../wads/START.WAD
Opened WAD: ../../quake-leveldesign-starterkit-master/wads/SiN.wad
Opened WAD: ../../quake-leveldesign-starterkit-master/wads/QUAKE101.WAD
Processing hull 0...
---- Brush_LoadEntity ----
         2569 brushes
         2139 planes
---- CSGFaces ----
        16012 brushfaces
        13150 csgfaces
        10355 mergedfaces
---- SolidBSP ----
        10919 split nodes
         3798 solid leafs
         6456 empty leafs
          666 water leafs
            0 detail leafs
            0 detail illusionary leafs
            0 detail fence leafs
            0 illusionary visblocker leafs
        26176 leaffaces
        22303 nodefaces
---- Portalize ----
         7122 vis leafs
         7122 vis clusters
        22668 vis portals
---- FillOutside ----
         3460 outleafs
---- MergeAll ----
         7502 mergefaces
---- SolidBSP ----
         4140 split nodes
         1746 solid leafs
         1959 empty leafs
          436 water leafs
            0 detail leafs
            0 detail illusionary leafs
            0 detail fence leafs
            0 illusionary visblocker leafs
        14044 leaffaces
        10096 nodefaces
---- Portalize ----
         2395 vis leafs
         2395 vis clusters
         6488 vis portals
---- Tjunc ----
         8449 world edges
        30219 edge points
         8407 edges added by tjunctions
            0 faces added by tjunctions
---- MakeFaceEdges ----
---- GrowRegions ----
Processing hull 1...
Processing hull 2...
*** WARNING 16: Texture __TB_empty not found
---- WriteBSPFile ----
Wrote EpisodeOne.bsp
         4437 planes            88740
        16187 vertexes         194244
         6477 nodes            155448
          510 texinfo           20400
        13522 faces            270440
        10219 clipnodes         81752
         4463 leafs            124964
        17475 marksurfaces      34950
        62336 surfedges        249344
        32108 edges            128432
          205 textures        1731532
              lightdata             0
              visdata               0
              entdata           63019

2.966 seconds elapsed
Peak memory usage: 102136162 (97.4M)
