---- qbsp / ericw-tools v0.18.1 ----
Input file: EpisodeOne.map
Output file: EpisodeOne.bsp

---- LoadMapFile ----
*** WARNING 06: No info_player_deathmatch entities in level
        15528 faces
         2444 brushes
          474 entities
           37 unique texnames
          185 texinfo

Opened WAD: ../wads/prototype_1_2.wad
Opened WAD: ../wads/START.WAD
Processing hull 0...
---- Brush_LoadEntity ----
         2051 brushes
         2058 planes
---- CSGFaces ----
        12874 brushfaces
        11563 csgfaces
         8861 mergedfaces
---- SolidBSP ----
        10285 split nodes
         3653 solid leafs
         6072 empty leafs
          561 water leafs
            0 detail leafs
            0 detail illusionary leafs
            0 detail fence leafs
            0 illusionary visblocker leafs
        23798 leaffaces
        19687 nodefaces
---- Portalize ----
         6633 vis leafs
         6633 vis clusters
        21463 vis portals
---- FillOutside ----
         3271 outleafs
---- MergeAll ----
         6334 mergefaces
---- SolidBSP ----
         3951 split nodes
         1722 solid leafs
         1827 empty leafs
          403 water leafs
            0 detail leafs
            0 detail illusionary leafs
            0 detail fence leafs
            0 illusionary visblocker leafs
        12916 leaffaces
         8645 nodefaces
---- Portalize ----
         2230 vis leafs
         2230 vis clusters
         6185 vis portals
---- Tjunc ----
         8035 world edges
        27650 edge points
         7674 edges added by tjunctions
            0 faces added by tjunctions
---- MakeFaceEdges ----
---- GrowRegions ----
Processing hull 1...
Processing hull 2...
*** WARNING 16: Texture __TB_empty not found
---- WriteBSPFile ----
Wrote EpisodeOne.bsp
         4180 planes            83600
        13689 vertexes         164268
         5620 nodes            134880
          156 texinfo            6240
        10956 faces            219120
         9138 clipnodes         73104
         3768 leafs            105504
        15227 marksurfaces      30454
        51268 surfedges        205072
        25925 edges            103700
           45 textures         501400
              lightdata             0
              visdata               0
              entdata           47935

2.610 seconds elapsed
Peak memory usage: 89133246 (85.0M)
