---- qbsp / ericw-tools v0.18.1 ----
Input file: EpisodeOne.map
Output file: EpisodeOne.bsp

---- LoadMapFile ----
*** WARNING 06: No info_player_deathmatch entities in level
        16341 faces
         2576 brushes
          620 entities
           37 unique texnames
          199 texinfo

Opened WAD: ../wads/prototype_1_2.wad
Opened WAD: ../wads/START.WAD
Processing hull 0...
---- Brush_LoadEntity ----
         2128 brushes
         2054 planes
---- CSGFaces ----
        13297 brushfaces
        11837 csgfaces
         8936 mergedfaces
---- SolidBSP ----
        10685 split nodes
         3881 solid leafs
         6318 empty leafs
          487 water leafs
            0 detail leafs
            0 detail illusionary leafs
            0 detail fence leafs
            0 illusionary visblocker leafs
        24046 leaffaces
        20237 nodefaces
---- Portalize ----
         6805 vis leafs
         6805 vis clusters
        21891 vis portals
---- FillOutside ----
         3447 outleafs
---- MergeAll ----
         6332 mergefaces
---- SolidBSP ----
         3992 split nodes
         1802 solid leafs
         1858 empty leafs
          333 water leafs
            0 detail leafs
            0 detail illusionary leafs
            0 detail fence leafs
            0 illusionary visblocker leafs
        12628 leaffaces
         8769 nodefaces
---- Portalize ----
         2191 vis leafs
         2191 vis clusters
         6001 vis portals
---- Tjunc ----
         8045 world edges
        28219 edge points
         7686 edges added by tjunctions
            0 faces added by tjunctions
---- MakeFaceEdges ----
---- GrowRegions ----
Processing hull 1...
Processing hull 2...
*** WARNING 16: Texture __TB_empty not found
---- WriteBSPFile ----
Wrote EpisodeOne.bsp
         4240 planes            84800
        15384 vertexes         184608
         6306 nodes            151344
          159 texinfo            6360
        12146 faces            242920
         9822 clipnodes         78576
         4236 leafs            118608
        16009 marksurfaces      32018
        56160 surfedges        224640
        28984 edges            115936
           45 textures         501400
              lightdata             0
              visdata               0
              entdata           62641

2.520 seconds elapsed
Peak memory usage: 93652578 (89.3M)
