---- qbsp / ericw-tools v0.18.1 ----
Input file: EpisodeOne.map
Output file: EpisodeOne.bsp

---- LoadMapFile ----
*** WARNING 06: No info_player_deathmatch entities in level
           60 faces
           10 brushes
            5 entities
            5 unique texnames
           13 texinfo

Opened WAD: ../wads/prototype_1_2.wad
Opened WAD: ../wads/START.WAD
Processing hull 0...
---- Brush_LoadEntity ----
            7 brushes
           17 planes
---- CSGFaces ----
           42 brushfaces
           33 csgfaces
           32 mergedfaces
---- SolidBSP ----
           61 split nodes
           18 solid leafs
           43 empty leafs
            1 water leafs
            0 detail leafs
            0 detail illusionary leafs
            0 detail fence leafs
            0 illusionary visblocker leafs
          108 leaffaces
          108 nodefaces
---- Portalize ----
           44 vis leafs
           44 vis clusters
          115 vis portals
---- FillOutside ----
           38 outleafs
---- MergeAll ----
           20 mergefaces
---- SolidBSP ----
           15 split nodes
           10 solid leafs
            5 empty leafs
            1 water leafs
            0 detail leafs
            0 detail illusionary leafs
            0 detail fence leafs
            0 illusionary visblocker leafs
           41 leaffaces
           30 nodefaces
---- Portalize ----
            6 vis leafs
            6 vis clusters
           13 vis portals
---- Tjunc ----
           31 world edges
           86 edge points
           14 edges added by tjunctions
            0 faces added by tjunctions
---- MakeFaceEdges ----
---- GrowRegions ----
Processing hull 1...
*** WARNING 19: No entities in empty space -- no filling performed (hull 1)
Processing hull 2...
*** WARNING 19: No entities in empty space -- no filling performed (hull 2)
*** WARNING 16: Texture __TB_empty not found
---- WriteBSPFile ----
Wrote EpisodeOne.bsp
           57 planes             1140
           57 vertexes            684
           33 nodes               792
           11 texinfo             440
           48 faces               960
           84 clipnodes           672
           25 leafs               700
           59 marksurfaces        118
          206 surfedges           824
          104 edges               416
            7 textures          53760
              lightdata             0
              visdata               0
              entdata             309

0.097 seconds elapsed
Peak memory usage: 354884 (346.6k)
