---- qbsp / ericw-tools v0.18.1 ----
Input file: EpisodeOne.map
Output file: EpisodeOne.bsp

---- LoadMapFile ----
*** WARNING 06: No info_player_deathmatch entities in level
        12323 faces
         1932 brushes
          222 entities
           34 unique texnames
          119 texinfo

Opened WAD: ../wads/prototype_1_2.wad
Opened WAD: ../wads/START.WAD
Processing hull 0...
---- Brush_LoadEntity ----
         1679 brushes
         1771 planes
---- CSGFaces ----
        10509 brushfaces
         9715 csgfaces
         7732 mergedfaces
---- SolidBSP ----
         9189 split nodes
         3232 solid leafs
         5433 empty leafs
          525 water leafs
            0 detail leafs
            0 detail illusionary leafs
            0 detail fence leafs
            0 illusionary visblocker leafs
        20536 leaffaces
        17450 nodefaces
---- Portalize ----
         5958 vis leafs
         5958 vis clusters
        19356 vis portals
---- FillOutside ----
         3013 outleafs
---- MergeAll ----
         5486 mergefaces
---- SolidBSP ----
         3461 split nodes
         1574 solid leafs
         1500 empty leafs
          388 water leafs
            0 detail leafs
            0 detail illusionary leafs
            0 detail fence leafs
            0 illusionary visblocker leafs
        11240 leaffaces
         7685 nodefaces
---- Portalize ----
         1888 vis leafs
         1888 vis clusters
         5179 vis portals
---- Tjunc ----
         7050 world edges
        24641 edge points
         6916 edges added by tjunctions
            0 faces added by tjunctions
---- MakeFaceEdges ----
---- GrowRegions ----
Processing hull 1...
Processing hull 2...
*** WARNING 16: Texture __TB_empty not found
---- WriteBSPFile ----
Wrote EpisodeOne.bsp
         3486 planes            69720
        11186 vertexes         134232
         4433 nodes            106392
           89 texinfo            3560
         8866 faces            177320
         7500 clipnodes         60000
         2810 leafs             78680
        12421 marksurfaces      24842
        42408 surfedges        169632
        21368 edges             85472
           41 textures         495784
              lightdata             0
              visdata               0
              entdata           21377

1.993 seconds elapsed
Peak memory usage: 74901086 (71.4M)
