---- qbsp / ericw-tools v0.18.1 ----
Input file: EpisodeOne.map
Output file: EpisodeOne.bsp

---- LoadMapFile ----
*** WARNING 06: No info_player_deathmatch entities in level
         4217 faces
          674 brushes
           49 entities
           27 unique texnames
           90 texinfo

Opened WAD: ../wads/prototype_1_2.wad
Opened WAD: ../wads/START.WAD
Processing hull 0...
---- Brush_LoadEntity ----
          521 brushes
          909 planes
---- CSGFaces ----
         3299 brushfaces
         2889 csgfaces
         2230 mergedfaces
---- SolidBSP ----
         2984 split nodes
         1080 solid leafs
         1801 empty leafs
          104 water leafs
            0 detail leafs
            0 detail illusionary leafs
            0 detail fence leafs
            0 illusionary visblocker leafs
         6138 leaffaces
         5469 nodefaces
---- Portalize ----
         1905 vis leafs
         1905 vis clusters
         5656 vis portals
---- FillOutside ----
         1201 outleafs
---- MergeAll ----
         1374 mergefaces
---- SolidBSP ----
          966 split nodes
          535 solid leafs
          380 empty leafs
           52 water leafs
            0 detail leafs
            0 detail illusionary leafs
            0 detail fence leafs
            0 illusionary visblocker leafs
         2608 leaffaces
         2065 nodefaces
---- Portalize ----
          432 vis leafs
          432 vis clusters
         1147 vis portals
---- Tjunc ----
         1905 world edges
         6751 edge points
         1680 edges added by tjunctions
            0 faces added by tjunctions
---- MakeFaceEdges ----
---- GrowRegions ----
Processing hull 1...
Processing hull 2...
*** WARNING 16: Texture __TB_empty not found
---- WriteBSPFile ----
Wrote EpisodeOne.bsp
          854 planes            17080
         2637 vertexes          31644
         1128 nodes             27072
           62 texinfo            2480
         2106 faces             42120
         1660 clipnodes         13280
          595 leafs             16660
         2649 marksurfaces       5298
         9818 surfedges         39272
         4968 edges             19872
           33 textures         430616
              lightdata             0
              visdata               0
              entdata            3574

0.632 seconds elapsed
Peak memory usage: 23927622 (22.8M)
