---- qbsp / ericw-tools v0.18.1 ----
Input file: EpisodeOne.map
Output file: EpisodeOne.bsp

---- LoadMapFile ----
*** WARNING 06: No info_player_deathmatch entities in level
        18535 faces
         2943 brushes
          626 entities
          152 unique texnames
          556 texinfo

Opened WAD: ../wads/prototype_1_2.wad
Opened WAD: ../wads/START.WAD
Opened WAD: ../../quake-leveldesign-starterkit-master/wads/SiN.wad
Opened WAD: ../../quake-leveldesign-starterkit-master/wads/QUAKE101.WAD
Processing hull 0...
---- Brush_LoadEntity ----
         2472 brushes
         2072 planes
---- CSGFaces ----
        15355 brushfaces
        12720 csgfaces
         9397 mergedfaces
---- SolidBSP ----
        10675 split nodes
         3872 solid leafs
         6307 empty leafs
          497 water leafs
            0 detail leafs
            0 detail illusionary leafs
            0 detail fence leafs
            0 illusionary visblocker leafs
        24706 leaffaces
        20910 nodefaces
---- Portalize ----
         6804 vis leafs
         6804 vis clusters
        21812 vis portals
---- FillOutside ----
         3455 outleafs
---- MergeAll ----
         6601 mergefaces
---- SolidBSP ----
         3990 split nodes
         1795 solid leafs
         1861 empty leafs
          335 water leafs
            0 detail leafs
            0 detail illusionary leafs
            0 detail fence leafs
            0 illusionary visblocker leafs
        13017 leaffaces
         9149 nodefaces
---- Portalize ----
         2196 vis leafs
         2196 vis clusters
         5938 vis portals
---- Tjunc ----
         8255 world edges
        29351 edge points
         7833 edges added by tjunctions
            0 faces added by tjunctions
---- MakeFaceEdges ----
---- GrowRegions ----
Processing hull 1...
Processing hull 2...
*** WARNING 16: Texture __TB_empty not found
---- WriteBSPFile ----
Wrote EpisodeOne.bsp
         4306 planes            86120
        15915 vertexes         190980
         6327 nodes            151848
          396 texinfo           15840
        12575 faces            251500
        10051 clipnodes         80408
         4264 leafs            119392
        16448 marksurfaces      32896
        58012 surfedges        232048
        29946 edges            119784
          160 textures        1437152
              lightdata             0
              visdata               0
              entdata           63080

2.753 seconds elapsed
Peak memory usage: 98859396 (94.3M)
