---- qbsp / ericw-tools v0.18.1 ----
Input file: EpisodeOne.map
Output file: EpisodeOne.bsp

---- LoadMapFile ----
*** WARNING 06: No info_player_deathmatch entities in level
        12769 faces
         2006 brushes
          327 entities
           37 unique texnames
          129 texinfo

Opened WAD: ../wads/prototype_1_2.wad
Opened WAD: ../wads/START.WAD
Processing hull 0...
---- Brush_LoadEntity ----
         1697 brushes
         1785 planes
---- CSGFaces ----
        10617 brushfaces
         9904 csgfaces
         7887 mergedfaces
---- SolidBSP ----
         9440 split nodes
         3323 solid leafs
         5577 empty leafs
          541 water leafs
            0 detail leafs
            0 detail illusionary leafs
            0 detail fence leafs
            0 illusionary visblocker leafs
        20925 leaffaces
        17821 nodefaces
---- Portalize ----
         6118 vis leafs
         6118 vis clusters
        19931 vis portals
---- FillOutside ----
         3109 outleafs
---- MergeAll ----
         5603 mergefaces
---- SolidBSP ----
         3528 split nodes
         1610 solid leafs
         1525 empty leafs
          394 water leafs
            0 detail leafs
            0 detail illusionary leafs
            0 detail fence leafs
            0 illusionary visblocker leafs
        11449 leaffaces
         7833 nodefaces
---- Portalize ----
         1919 vis leafs
         1919 vis clusters
         5228 vis portals
---- Tjunc ----
         7150 world edges
        25100 edge points
         7017 edges added by tjunctions
            0 faces added by tjunctions
---- MakeFaceEdges ----
---- GrowRegions ----
Processing hull 1...
Processing hull 2...
*** WARNING 16: Texture __TB_empty not found
---- WriteBSPFile ----
Wrote EpisodeOne.bsp
         3625 planes            72500
        11901 vertexes         142812
         4800 nodes            115200
          100 texinfo            4000
         9432 faces            188640
         8153 clipnodes         65224
         3109 leafs             87052
        13048 marksurfaces      26096
        44780 surfedges        179120
        22570 edges             90280
           45 textures         501400
              lightdata             0
              visdata               0
              entdata           31670

1.834 seconds elapsed
Peak memory usage: 76946512 (73.4M)
