---- qbsp / ericw-tools v0.18.1 ----
Input file: SP1.map
Output file: SP1.bsp

---- LoadMapFile ----
*** WARNING 06: No info_player_deathmatch entities in level
           36 faces
            6 brushes
            2 entities
            1 unique texnames
            3 texinfo

*** WARNING 01: No valid WAD filenames in worldmodel
Processing hull 0...
---- Brush_LoadEntity ----
            6 brushes
           12 planes
---- CSGFaces ----
           36 brushfaces
           24 csgfaces
           12 mergedfaces
---- SolidBSP ----
           24 split nodes
            6 solid leafs
           19 empty leafs
            0 water leafs
            0 detail leafs
            0 detail illusionary leafs
            0 detail fence leafs
            0 illusionary visblocker leafs
           52 leaffaces
           52 nodefaces
---- Portalize ----
           19 vis leafs
           19 vis clusters
           48 vis portals
---- FillOutside ----
           18 outleafs
---- MergeAll ----
            6 mergefaces
---- SolidBSP ----
            6 split nodes
            6 solid leafs
            1 empty leafs
            0 water leafs
            0 detail leafs
            0 detail illusionary leafs
            0 detail fence leafs
            0 illusionary visblocker leafs
           16 leaffaces
           16 nodefaces
---- Portalize ----
            1 vis leafs
            1 vis clusters
            0 vis portals
---- Tjunc ----
           20 world edges
           56 edge points
            8 edges added by tjunctions
            0 faces added by tjunctions
---- MakeFaceEdges ----
---- GrowRegions ----
Processing hull 1...
*** WARNING 19: No entities in empty space -- no filling performed (hull 1)
Processing hull 2...
*** WARNING 19: No entities in empty space -- no filling performed (hull 2)
*** WARNING 16: Texture __TB_empty not found
---- WriteBSPFile ----
Wrote SP1.bsp
           28 planes              560
           22 vertexes            264
            6 nodes               144
            3 texinfo             120
           16 faces               320
           48 clipnodes           384
            2 leafs                56
           16 marksurfaces         32
           72 surfedges           288
           37 edges               148
            1 textures              8
              lightdata             0
              visdata               0
              entdata             111

0.062 seconds elapsed
Peak memory usage: 229096 (223.7k)
